
     RDKit          3D

 15 15  0  0  0  0  0  0  0  0999 V2000
    1.3603   -1.2319   -0.1246 C   0  0  0  0  0  0  0  0  0  0  0  0
   -0.0359   -1.1959   -0.1980 C   0  0  0  0  0  0  0  0  0  0  0  0
   -0.7194    0.0235   -0.0627 C   0  0  0  0  0  0  0  0  0  0  0  0
    0.0097    1.1997    0.1773 C   0  0  0  0  0  0  0  0  0  0  0  0
    1.4058    1.1596    0.2501 C   0  0  0  0  0  0  0  0  0  0  0  0
    2.0808   -0.0548    0.0968 C   0  0  0  0  0  0  0  0  0  0  0  0
   -2.2184    0.0581   -0.1015 C   0  0  0  0  0  0  0  0  0  0  0  0
    1.8835   -2.1729   -0.2355 H   0  0  0  0  0  0  0  0  0  0  0  0
   -0.5828   -2.1165   -0.3605 H   0  0  0  0  0  0  0  0  0  0  0  0
   -0.5017    2.1455    0.3072 H   0  0  0  0  0  0  0  0  0  0  0  0
    1.9642    2.0693    0.4291 H   0  0  0  0  0  0  0  0  0  0  0  0
    3.1612   -0.0844    0.1547 H   0  0  0  0  0  0  0  0  0  0  0  0
   -2.6177   -0.0947    0.9229 H   0  0  0  0  0  0  0  0  0  0  0  0
   -2.6116   -0.7400   -0.7666 H   0  0  0  0  0  0  0  0  0  0  0  0
   -2.5778    1.0354   -0.4885 H   0  0  0  0  0  0  0  0  0  0  0  0
  1  2  1  0
  2  3  2  0
  3  4  1  0
  4  5  2  0
  5  6  1  0
  6  1  2  0
  3  7  1  0
  1  8  1  0
  2  9  1  0
  4 10  1  0
  5 11  1  0
  6 12  1  0
  7 13  1  0
  7 14  1  0
  7 15  1  0
M  END
