
     RDKit          3D

 15 15  0  0  0  0  0  0  0  0999 V2000
   -1.2557    1.3942    0.0359 C   0  0  0  0  0  0  0  0  0  0  0  0
    0.1152    1.1211   -0.0076 C   0  0  0  0  0  0  0  0  0  0  0  0
    0.5760   -0.2082   -0.0179 C   0  0  0  0  0  0  0  0  0  0  0  0
   -0.3634   -1.2562    0.0161 C   0  0  0  0  0  0  0  0  0  0  0  0
   -1.7331   -0.9770    0.0595 C   0  0  0  0  0  0  0  0  0  0  0  0
   -2.1788    0.3466    0.0694 C   0  0  0  0  0  0  0  0  0  0  0  0
    2.0266   -0.4956   -0.0639 C   0  0  0  0  0  0  0  0  0  0  0  0
    2.4418   -1.6862   -0.0733 O   0  0  0  0  0  0  0  0  0  0  0  0
    2.9482    0.5478   -0.0973 O   0  0  0  0  0  0  0  0  0  0  0  0
   -1.6025    2.4196    0.0436 H   0  0  0  0  0  0  0  0  0  0  0  0
    0.8119    1.9495   -0.0329 H   0  0  0  0  0  0  0  0  0  0  0  0
   -0.0410   -2.2899    0.0092 H   0  0  0  0  0  0  0  0  0  0  0  0
   -2.4494   -1.7881    0.0854 H   0  0  0  0  0  0  0  0  0  0  0  0
   -3.2393    0.5604    0.1030 H   0  0  0  0  0  0  0  0  0  0  0  0
    3.9436    0.3621   -0.1289 H   0  0  0  0  0  0  0  0  0  0  0  0
  1  2  1  0
  2  3  2  0
  3  4  1  0
  4  5  2  0
  5  6  1  0
  6  1  2  0
  7  8  2  0
  7  9  1  0
  3  7  1  0
  1 10  1  0
  2 11  1  0
  4 12  1  0
  5 13  1  0
  6 14  1  0
  9 15  1  0
M  END
