
     RDKit          3D

 12 12  0  0  0  0  0  0  0  0999 V2000
   -0.8366    1.1648    0.0204 C   0  0  0  0  0  0  0  0  0  0  0  0
    0.5599    1.2462    0.0195 C   0  0  0  0  0  0  0  0  0  0  0  0
    1.3297    0.0769   -0.0009 C   0  0  0  0  0  0  0  0  0  0  0  0
    0.6998   -1.1733   -0.0203 C   0  0  0  0  0  0  0  0  0  0  0  0
   -0.6968   -1.2535   -0.0194 C   0  0  0  0  0  0  0  0  0  0  0  0
   -1.4649   -0.0847    0.0010 C   0  0  0  0  0  0  0  0  0  0  0  0
    3.2363    0.1872   -0.0022 Br  0  0  0  0  0  0  0  0  0  0  0  0
   -1.4312    2.0691    0.0362 H   0  0  0  0  0  0  0  0  0  0  0  0
    1.0419    2.2152    0.0346 H   0  0  0  0  0  0  0  0  0  0  0  0
    1.2903   -2.0804   -0.0361 H   0  0  0  0  0  0  0  0  0  0  0  0
   -1.1832   -2.2203   -0.0344 H   0  0  0  0  0  0  0  0  0  0  0  0
   -2.5454   -0.1472    0.0017 H   0  0  0  0  0  0  0  0  0  0  0  0
  1  2  1  0
  2  3  2  0
  3  4  1  0
  4  5  2  0
  5  6  1  0
  6  1  2  0
  3  7  1  0
  1  8  1  0
  2  9  1  0
  4 10  1  0
  5 11  1  0
  6 12  1  0
M  END
