
     RDKit          3D

 14 14  0  0  0  0  0  0  0  0999 V2000
   -1.0798   -1.2140    0.5282 C   0  0  0  0  0  0  0  0  0  0  0  0
    0.3115   -1.1062    0.4321 C   0  0  0  0  0  0  0  0  0  0  0  0
    0.8949    0.0704   -0.0622 C   0  0  0  0  0  0  0  0  0  0  0  0
    0.0732    1.1364   -0.4588 C   0  0  0  0  0  0  0  0  0  0  0  0
   -1.3177    1.0255   -0.3615 C   0  0  0  0  0  0  0  0  0  0  0  0
   -1.8939   -0.1489    0.1317 C   0  0  0  0  0  0  0  0  0  0  0  0
    2.3171    0.1822   -0.1611 N   0  0  0  0  0  0  0  0  0  0  0  0
   -1.5266   -2.1229    0.9099 H   0  0  0  0  0  0  0  0  0  0  0  0
    0.9333   -1.9367    0.7418 H   0  0  0  0  0  0  0  0  0  0  0  0
    0.5097    2.0502   -0.8421 H   0  0  0  0  0  0  0  0  0  0  0  0
   -1.9487    1.8497   -0.6683 H   0  0  0  0  0  0  0  0  0  0  0  0
   -2.9703   -0.2335    0.2065 H   0  0  0  0  0  0  0  0  0  0  0  0
    2.9369   -0.6059    0.1316 H   0  0  0  0  0  0  0  0  0  0  0  0
    2.7605    1.0538   -0.5277 H   0  0  0  0  0  0  0  0  0  0  0  0
  1  2  1  0
  2  3  2  0
  3  4  1  0
  4  5  2  0
  5  6  1  0
  6  1  2  0
  3  7  1  0
  1  8  1  0
  2  9  1  0
  4 10  1  0
  5 11  1  0
  6 12  1  0
  7 13  1  0
  7 14  1  0
M  END
