
     RDKit          3D

 13 13  0  0  0  0  0  0  0  0999 V2000
   -0.7056   -1.3171    0.2091 C   0  0  0  0  0  0  0  0  0  0  0  0
    0.6550   -0.9971    0.2673 C   0  0  0  0  0  0  0  0  0  0  0  0
    1.0779    0.3198    0.0324 C   0  0  0  0  0  0  0  0  0  0  0  0
    0.1331    1.3107   -0.2603 C   0  0  0  0  0  0  0  0  0  0  0  0
   -1.2270    0.9889   -0.3181 C   0  0  0  0  0  0  0  0  0  0  0  0
   -1.6462   -0.3245   -0.0835 C   0  0  0  0  0  0  0  0  0  0  0  0
    2.4295    0.6524    0.0872 O   0  0  0  0  0  0  0  0  0  0  0  0
   -1.0305   -2.3334    0.3906 H   0  0  0  0  0  0  0  0  0  0  0  0
    1.3777   -1.7704    0.4944 H   0  0  0  0  0  0  0  0  0  0  0  0
    0.4530    2.3288   -0.4425 H   0  0  0  0  0  0  0  0  0  0  0  0
   -1.9554    1.7568   -0.5445 H   0  0  0  0  0  0  0  0  0  0  0  0
   -2.6987   -0.5728   -0.1284 H   0  0  0  0  0  0  0  0  0  0  0  0
    3.1373   -0.0420    0.2964 H   0  0  0  0  0  0  0  0  0  0  0  0
  1  2  1  0
  2  3  2  0
  3  4  1  0
  4  5  2  0
  5  6  1  0
  6  1  2  0
  3  7  1  0
  1  8  1  0
  2  9  1  0
  4 10  1  0
  5 11  1  0
  6 12  1  0
  7 13  1  0
M  END
