
     RDKit          3D

 21 22  0  0  0  0  0  0  0  0999 V2000
    2.3634    1.7032   -0.2521 C   0  0  0  0  0  0  0  0  0  0  0  0
    1.2200    1.1693    0.3503 C   0  0  0  0  0  0  0  0  0  0  0  0
    0.5006    0.1339   -0.2767 C   0  0  0  0  0  0  0  0  0  0  0  0
    0.9522   -0.3522   -1.5187 C   0  0  0  0  0  0  0  0  0  0  0  0
    2.0957    0.1863   -2.1168 C   0  0  0  0  0  0  0  0  0  0  0  0
    2.8006    1.2125   -1.4843 C   0  0  0  0  0  0  0  0  0  0  0  0
   -0.7142   -0.4356    0.3610 C   0  0  0  0  0  0  0  0  0  0  0  0
   -1.6358    0.3923    1.0253 C   0  0  0  0  0  0  0  0  0  0  0  0
   -2.7732   -0.1574    1.6189 C   0  0  0  0  0  0  0  0  0  0  0  0
   -2.9845   -1.5343    1.5474 C   0  0  0  0  0  0  0  0  0  0  0  0
   -2.0878   -2.3275    0.9049 N   0  0  0  0  0  0  0  0  0  0  0  0
   -0.9730   -1.8175    0.3163 C   0  0  0  0  0  0  0  0  0  0  0  0
    2.9128    2.4960    0.2390 H   0  0  0  0  0  0  0  0  0  0  0  0
    0.9097    1.5534    1.3139 H   0  0  0  0  0  0  0  0  0  0  0  0
    0.4119   -1.1351   -2.0357 H   0  0  0  0  0  0  0  0  0  0  0  0
    2.4334   -0.1905   -3.0737 H   0  0  0  0  0  0  0  0  0  0  0  0
    3.6857    1.6276   -1.9490 H   0  0  0  0  0  0  0  0  0  0  0  0
   -1.4870    1.4638    1.0696 H   0  0  0  0  0  0  0  0  0  0  0  0
   -3.4865    0.4789    2.1267 H   0  0  0  0  0  0  0  0  0  0  0  0
   -3.8619   -1.9734    2.0031 H   0  0  0  0  0  0  0  0  0  0  0  0
   -0.2819   -2.4938   -0.1693 H   0  0  0  0  0  0  0  0  0  0  0  0
  1  2  1  0
  2  3  2  0
  3  4  1  0
  4  5  2  0
  5  6  1  0
  6  1  2  0
  7  8  1  0
  8  9  2  0
  9 10  1  0
 10 11  2  0
 11 12  1  0
 12  7  2  0
  3  7  1  0
  1 13  1  0
  2 14  1  0
  4 15  1  0
  5 16  1  0
  6 17  1  0
  8 18  1  0
  9 19  1  0
 10 20  1  0
 12 21  1  0
M  END
