
     RDKit          3D

 12 12  0  0  0  0  0  0  0  0999 V2000
   -0.8021   -1.1806    0.0052 C   0  0  0  0  0  0  0  0  0  0  0  0
    0.5957   -1.2363    0.0217 C   0  0  0  0  0  0  0  0  0  0  0  0
    1.3439   -0.0529    0.0159 C   0  0  0  0  0  0  0  0  0  0  0  0
    0.6912    1.1857   -0.0065 C   0  0  0  0  0  0  0  0  0  0  0  0
   -0.7065    1.2400   -0.0230 C   0  0  0  0  0  0  0  0  0  0  0  0
   -1.4530    0.0571   -0.0172 C   0  0  0  0  0  0  0  0  0  0  0  0
    3.0965   -0.1218    0.0366 Cl  0  0  0  0  0  0  0  0  0  0  0  0
   -1.3800   -2.0957    0.0097 H   0  0  0  0  0  0  0  0  0  0  0  0
    1.0948   -2.1968    0.0390 H   0  0  0  0  0  0  0  0  0  0  0  0
    1.2645    2.1040   -0.0111 H   0  0  0  0  0  0  0  0  0  0  0  0
   -1.2106    2.1976   -0.0403 H   0  0  0  0  0  0  0  0  0  0  0  0
   -2.5345    0.0997   -0.0300 H   0  0  0  0  0  0  0  0  0  0  0  0
  1  2  1  0
  2  3  2  0
  3  4  1  0
  4  5  2  0
  5  6  1  0
  6  1  2  0
  3  7  1  0
  1  8  1  0
  2  9  1  0
  4 10  1  0
  5 11  1  0
  6 12  1  0
M  END
