
     RDKit          3D

 13 13  0  0  0  0  0  0  0  0999 V2000
   -0.9954    1.2427   -0.0136 C   0  0  0  0  0  0  0  0  0  0  0  0
    0.4002    1.1977   -0.0995 C   0  0  0  0  0  0  0  0  0  0  0  0
    1.0655   -0.0357   -0.0654 C   0  0  0  0  0  0  0  0  0  0  0  0
    0.3286   -1.2221    0.0547 C   0  0  0  0  0  0  0  0  0  0  0  0
   -1.0669   -1.1736    0.1403 C   0  0  0  0  0  0  0  0  0  0  0  0
   -1.7284    0.0579    0.1062 C   0  0  0  0  0  0  0  0  0  0  0  0
    2.5015   -0.0838   -0.1537 C   0  0  0  0  0  0  0  0  0  0  0  0
    3.6559   -0.1225   -0.2246 N   0  0  0  0  0  0  0  0  0  0  0  0
   -1.5083    2.1955   -0.0400 H   0  0  0  0  0  0  0  0  0  0  0  0
    0.9589    2.1213   -0.1921 H   0  0  0  0  0  0  0  0  0  0  0  0
    0.8316   -2.1813    0.0821 H   0  0  0  0  0  0  0  0  0  0  0  0
   -1.6352   -2.0901    0.2331 H   0  0  0  0  0  0  0  0  0  0  0  0
   -2.8081    0.0941    0.1725 H   0  0  0  0  0  0  0  0  0  0  0  0
  1  2  1  0
  2  3  2  0
  3  4  1  0
  4  5  2  0
  5  6  1  0
  6  1  2  0
  7  8  3  0
  3  7  1  0
  1  9  1  0
  2 10  1  0
  4 11  1  0
  5 12  1  0
  6 13  1  0
M  END
