
     RDKit          3D

 12 12  0  0  0  0  0  0  0  0999 V2000
   -0.8262    1.1428    0.0278 C   0  0  0  0  0  0  0  0  0  0  0  0
    0.5674    1.2665    0.0240 C   0  0  0  0  0  0  0  0  0  0  0  0
    1.3715    0.1216   -0.0037 C   0  0  0  0  0  0  0  0  0  0  0  0
    0.7811   -1.1470   -0.0277 C   0  0  0  0  0  0  0  0  0  0  0  0
   -0.6125   -1.2703   -0.0239 C   0  0  0  0  0  0  0  0  0  0  0  0
   -1.4161   -0.1255    0.0039 C   0  0  0  0  0  0  0  0  0  0  0  0
    2.7220    0.2412   -0.0074 F   0  0  0  0  0  0  0  0  0  0  0  0
   -1.4480    2.0284    0.0492 H   0  0  0  0  0  0  0  0  0  0  0  0
    1.0223    2.2485    0.0425 H   0  0  0  0  0  0  0  0  0  0  0  0
    1.4016   -2.0336   -0.0491 H   0  0  0  0  0  0  0  0  0  0  0  0
   -1.0689   -2.2515   -0.0424 H   0  0  0  0  0  0  0  0  0  0  0  0
   -2.4942   -0.2210    0.0068 H   0  0  0  0  0  0  0  0  0  0  0  0
  1  2  1  0
  2  3  2  0
  3  4  1  0
  4  5  2  0
  5  6  1  0
  6  1  2  0
  3  7  1  0
  1  8  1  0
  2  9  1  0
  4 10  1  0
  5 11  1  0
  6 12  1  0
M  END
