
     RDKit          3D

 16 16  0  0  0  0  0  0  0  0999 V2000
   -1.5706   -1.0058    0.3435 C   0  0  0  0  0  0  0  0  0  0  0  0
   -0.1799   -0.8613    0.3044 C   0  0  0  0  0  0  0  0  0  0  0  0
    0.3947    0.3531   -0.1220 C   0  0  0  0  0  0  0  0  0  0  0  0
   -0.4441    1.4084   -0.5043 C   0  0  0  0  0  0  0  0  0  0  0  0
   -1.8340    1.2600   -0.4638 C   0  0  0  0  0  0  0  0  0  0  0  0
   -2.3969    0.0536   -0.0401 C   0  0  0  0  0  0  0  0  0  0  0  0
    1.7824    0.5499   -0.1797 O   0  0  0  0  0  0  0  0  0  0  0  0
    2.7487   -0.4329    0.1780 C   0  0  0  0  0  0  0  0  0  0  0  0
   -2.0079   -1.9400    0.6716 H   0  0  0  0  0  0  0  0  0  0  0  0
    0.4374   -1.6962    0.6065 H   0  0  0  0  0  0  0  0  0  0  0  0
   -0.0162    2.3467   -0.8339 H   0  0  0  0  0  0  0  0  0  0  0  0
   -2.4743    2.0805   -0.7609 H   0  0  0  0  0  0  0  0  0  0  0  0
   -3.4728   -0.0604   -0.0091 H   0  0  0  0  0  0  0  0  0  0  0  0
    2.6420   -1.3274   -0.4715 H   0  0  0  0  0  0  0  0  0  0  0  0
    3.7646   -0.0106    0.0368 H   0  0  0  0  0  0  0  0  0  0  0  0
    2.6269   -0.7177    1.2444 H   0  0  0  0  0  0  0  0  0  0  0  0
  1  2  1  0
  2  3  2  0
  3  4  1  0
  4  5  2  0
  5  6  1  0
  6  1  2  0
  7  8  1  0
  3  7  1  0
  1  9  1  0
  2 10  1  0
  4 11  1  0
  5 12  1  0
  6 13  1  0
  8 14  1  0
  8 15  1  0
  8 16  1  0
M  END
