
     RDKit          3D

 10  9  0  0  0  0  0  0  0  0999 V2000
   -1.3072    0.0434    0.0643 C   0  0  0  0  0  0  0  0  0  0  0  0
    0.0423   -0.0256   -0.5823 C   0  0  0  0  0  0  0  0  0  0  0  0
    0.1243   -0.0788   -1.7998 O   0  0  0  0  0  0  0  0  0  0  0  0
    1.2880   -0.0297    0.2508 C   0  0  0  0  0  0  0  0  0  0  0  0
   -1.8416    0.9516   -0.2850 H   0  0  0  0  0  0  0  0  0  0  0  0
   -1.2137    0.0865    1.1702 H   0  0  0  0  0  0  0  0  0  0  0  0
   -1.8979   -0.8557   -0.2098 H   0  0  0  0  0  0  0  0  0  0  0  0
    1.2790   -0.9074    0.9304 H   0  0  0  0  0  0  0  0  0  0  0  0
    2.1913   -0.0847   -0.3937 H   0  0  0  0  0  0  0  0  0  0  0  0
    1.3354    0.9003    0.8551 H   0  0  0  0  0  0  0  0  0  0  0  0
  1  2  1  0
  2  3  2  0
  2  4  1  0
  1  5  1  0
  1  6  1  0
  1  7  1  0
  4  8  1  0
  4  9  1  0
  4 10  1  0
M  END
