
     RDKit          3D

  8  7  0  0  0  0  0  0  0  0999 V2000
   -0.9712   -0.0732   -0.2141 C   0  0  0  0  0  0  0  0  0  0  0  0
    0.4475    0.2835    0.0744 C   0  0  0  0  0  0  0  0  0  0  0  0
    0.7935    1.4935    0.1312 O   0  0  0  0  0  0  0  0  0  0  0  0
    1.3777   -0.7197    0.3270 O   0  0  0  0  0  0  0  0  0  0  0  0
   -1.3951    0.6271   -0.9645 H   0  0  0  0  0  0  0  0  0  0  0  0
   -1.5655   -0.0122    0.7211 H   0  0  0  0  0  0  0  0  0  0  0  0
   -1.0285   -1.1066   -0.6157 H   0  0  0  0  0  0  0  0  0  0  0  0
    2.3416   -0.4925    0.5405 H   0  0  0  0  0  0  0  0  0  0  0  0
  1  2  1  0
  2  3  2  0
  2  4  1  0
  1  5  1  0
  1  6  1  0
  1  7  1  0
  4  8  1  0
M  END
