
     RDKit          3D

 21 21  0  0  0  0  0  0  0  0999 V2000
   -2.9989   -2.1912   -0.0784 C   0  0  0  0  0  0  0  0  0  0  0  0
   -2.1912   -0.9877    0.2700 C   0  0  0  0  0  0  0  0  0  0  0  0
   -2.6759   -0.1176    1.0431 O   0  0  0  0  0  0  0  0  0  0  0  0
   -0.8674   -0.8986   -0.1793 O   0  0  0  0  0  0  0  0  0  0  0  0
   -0.0709    0.2576   -0.1371 C   0  0  0  0  0  0  0  0  0  0  0  0
   -0.6462    1.5358   -0.2797 C   0  0  0  0  0  0  0  0  0  0  0  0
    0.1505    2.6806   -0.2510 C   0  0  0  0  0  0  0  0  0  0  0  0
    1.5296    2.5674   -0.0912 C   0  0  0  0  0  0  0  0  0  0  0  0
    2.1195    1.3086    0.0318 C   0  0  0  0  0  0  0  0  0  0  0  0
    1.3347    0.1396    0.0052 C   0  0  0  0  0  0  0  0  0  0  0  0
    2.0045   -1.1805    0.1384 C   0  0  0  0  0  0  0  0  0  0  0  0
    1.3372   -2.2497    0.1437 O   0  0  0  0  0  0  0  0  0  0  0  0
    3.3903   -1.2509    0.2611 O   0  0  0  0  0  0  0  0  0  0  0  0
   -2.6533   -2.6106   -1.0465 H   0  0  0  0  0  0  0  0  0  0  0  0
   -4.0717   -1.9190   -0.1685 H   0  0  0  0  0  0  0  0  0  0  0  0
   -2.8800   -2.9585    0.7145 H   0  0  0  0  0  0  0  0  0  0  0  0
   -1.7089    1.6503   -0.4436 H   0  0  0  0  0  0  0  0  0  0  0  0
   -0.3021    3.6575   -0.3622 H   0  0  0  0  0  0  0  0  0  0  0  0
    2.1454    3.4574   -0.0708 H   0  0  0  0  0  0  0  0  0  0  0  0
    3.1946    1.2529    0.1475 H   0  0  0  0  0  0  0  0  0  0  0  0
    3.8604   -2.1435    0.3531 H   0  0  0  0  0  0  0  0  0  0  0  0
  1  2  1  0
  2  3  2  0
  2  4  1  0
  4  5  1  0
  5  6  2  0
  6  7  1  0
  7  8  2  0
  8  9  1  0
  9 10  2  0
 10 11  1  0
 11 12  2  0
 11 13  1  0
 10  5  1  0
  1 14  1  0
  1 15  1  0
  1 16  1  0
  6 17  1  0
  7 18  1  0
  8 19  1  0
  9 20  1  0
 13 21  1  0
M  END
