
     RDKit          3D

 12 12  0  0  0  0  0  0  0  0999 V2000
    0.8056   -1.1438   -0.0083 C   0  0  0  0  0  0  0  0  0  0  0  0
    1.3931    0.1257   -0.0282 C   0  0  0  0  0  0  0  0  0  0  0  0
    0.5875    1.2695   -0.0199 C   0  0  0  0  0  0  0  0  0  0  0  0
   -0.8056    1.1438    0.0083 C   0  0  0  0  0  0  0  0  0  0  0  0
   -1.3931   -0.1257    0.0282 C   0  0  0  0  0  0  0  0  0  0  0  0
   -0.5875   -1.2695    0.0199 C   0  0  0  0  0  0  0  0  0  0  0  0
    1.4288   -2.0287   -0.0147 H   0  0  0  0  0  0  0  0  0  0  0  0
    2.4708    0.2230   -0.0500 H   0  0  0  0  0  0  0  0  0  0  0  0
    1.0420    2.2517   -0.0354 H   0  0  0  0  0  0  0  0  0  0  0  0
   -1.4288    2.0287    0.0147 H   0  0  0  0  0  0  0  0  0  0  0  0
   -2.4708   -0.2230    0.0500 H   0  0  0  0  0  0  0  0  0  0  0  0
   -1.0420   -2.2517    0.0354 H   0  0  0  0  0  0  0  0  0  0  0  0
  1  2  1  0
  2  3  2  0
  3  4  1  0
  4  5  2  0
  5  6  1  0
  6  1  2  0
  1  7  1  0
  2  8  1  0
  3  9  1  0
  4 10  1  0
  5 11  1  0
  6 12  1  0
M  END
