
     RDKit          3D

 24 25  0  0  0  0  0  0  0  0999 V2000
   -1.5049    2.7899    0.1682 C   0  0  0  0  0  0  0  0  0  0  0  0
   -0.9878    1.4182    0.0282 N   0  0  0  0  0  0  0  0  0  0  0  0
    0.3705    1.1942    0.0275 C   0  0  0  0  0  0  0  0  0  0  0  0
    1.1918    2.1466    0.1282 O   0  0  0  0  0  0  0  0  0  0  0  0
    0.8199   -0.1147   -0.0873 C   0  0  0  0  0  0  0  0  0  0  0  0
   -0.0608   -1.1376   -0.1709 C   0  0  0  0  0  0  0  0  0  0  0  0
    0.5840   -2.3167   -0.2831 N   0  0  0  0  0  0  0  0  0  0  0  0
    1.8917   -1.9491   -0.2613 C   0  0  0  0  0  0  0  0  0  0  0  0
    2.0674   -0.6102   -0.1407 N   0  0  0  0  0  0  0  0  0  0  0  0
    3.3364    0.1087   -0.0910 C   0  0  0  0  0  0  0  0  0  0  0  0
   -1.4070   -0.9433   -0.1284 N   0  0  0  0  0  0  0  0  0  0  0  0
   -2.3364   -2.0751   -0.2432 C   0  0  0  0  0  0  0  0  0  0  0  0
   -1.8705    0.3519   -0.0359 C   0  0  0  0  0  0  0  0  0  0  0  0
   -3.1157    0.5658   -0.0083 O   0  0  0  0  0  0  0  0  0  0  0  0
   -0.7960    3.5362   -0.2495 H   0  0  0  0  0  0  0  0  0  0  0  0
   -1.6780    3.0142    1.2417 H   0  0  0  0  0  0  0  0  0  0  0  0
   -2.4571    2.9170   -0.3899 H   0  0  0  0  0  0  0  0  0  0  0  0
    2.7067   -2.6579   -0.3332 H   0  0  0  0  0  0  0  0  0  0  0  0
    3.4149    0.6643    0.8669 H   0  0  0  0  0  0  0  0  0  0  0  0
    3.3967    0.8215   -0.9399 H   0  0  0  0  0  0  0  0  0  0  0  0
    4.1878   -0.6013   -0.1611 H   0  0  0  0  0  0  0  0  0  0  0  0
   -1.8501   -3.0316    0.0441 H   0  0  0  0  0  0  0  0  0  0  0  0
   -2.6976   -2.1547   -1.2901 H   0  0  0  0  0  0  0  0  0  0  0  0
   -3.2057   -1.9362    0.4345 H   0  0  0  0  0  0  0  0  0  0  0  0
  1  2  1  0
  2  3  1  0
  3  4  2  0
  3  5  1  0
  5  6  2  0
  6  7  1  0
  7  8  2  0
  8  9  1  0
  9 10  1  0
  6 11  1  0
 11 12  1  0
 11 13  1  0
 13 14  2  0
 13  2  1  0
  9  5  1  0
  1 15  1  0
  1 16  1  0
  1 17  1  0
  8 18  1  0
 10 19  1  0
 10 20  1  0
 10 21  1  0
 12 22  1  0
 12 23  1  0
 12 24  1  0
M  END
