
     RDKit          3D

  3  2  0  0  0  0  0  0  0  0999 V2000
    0.0089    0.4040    0.0000 O   0  0  0  0  0  0  0  0  0  0  0  0
   -0.7873   -0.1847    0.0000 H   0  0  0  0  0  0  0  0  0  0  0  0
    0.7784   -0.2193    0.0000 H   0  0  0  0  0  0  0  0  0  0  0  0
  1  2  1  0
  1  3  1  0
M  END
